
 *******************************************************************************

         NASA-GLENN CHEMICAL EQUILIBRIUM PROGRAM CEA2, MAY 21, 2004
                   BY  BONNIE MCBRIDE AND SANFORD GORDON
      REFS: NASA RP-1311, PART I, 1994 AND NASA RP-1311, PART II, 1996

 *******************************************************************************



  problem    o/f=  0.164299563
      rocket  frozen  nfz=2  tcest,k=3000
    p,bar=   20.1960640
    sup,ae/at=   17.1441288
  react
    oxid=O2 wt=100  t,k=298.15
    fuel=C3H6  wt=100  t,k=298.15
      h,kj/mol=-20.918  C 3 H 6
  output
      plot p son machfz ispfz cffz
  end

 OPTIONS: TP=f  HP=f  SP=f  TV=f  UV=f  SV=f  DETN=f  SHOCK=f  REFL=f  INCD=f
 RKT=t  FROZ=t  EQL=f  IONS=f  SIUNIT=t  DEBUGF=f  SHKDBG=f  DETDBG=f  TRNSPT=f

 TRACE= 0.00e+00  S/R= 0.000000e+00  H/R= 0.000000e+00  U/R= 0.000000e+00

 Pc,BAR =    20.196064

 Pc/P =

 SUBSONIC AREA RATIOS =

 SUPERSONIC AREA RATIOS =    17.1441

 NFZ=  2  Mdot/Ac= 0.000000e+00  Ac/At= 0.000000e+00

    REACTANT          WT.FRAC   (ENERGY/R),K   TEMP,K  DENSITY
        EXPLODED FORMULA
 O: O2               1.000000  -0.154035e-05   298.15  0.0000
          O  2.00000
 F: C3H6             1.000000  -0.251584e+04   298.15  0.0000
          C  3.00000  H  6.00000

  SPECIES BEING CONSIDERED IN THIS SYSTEM
 (CONDENSED PHASE MAY HAVE NAME LISTED SEVERAL TIMES)
  LAST thermo.inp UPDATE:    9/09/04

  g 7/97  *C               tpis79  *CH              g 4/02  CH2            
  g 4/02  CH3              g11/00  CH2OH            g 7/00  CH3O           
  g 8/99  CH4              g 7/00  CH3OH            srd 01  CH3OOH         
  tpis79  *CO              g 9/99  *CO2             tpis91  COOH           
  tpis91  *C2              g 6/01  C2H              g 1/91  C2H2,acetylene 
  g 5/01  C2H2,vinylidene  g 4/02  CH2CO,ketene     g 3/02  O(CH)2O        
  srd 01  HO(CO)2OH        g 7/01  C2H3,vinyl       g 6/96  CH3CO,acetyl   
  g 1/00  C2H4             g 8/88  C2H4O,ethylen-o  g 8/88  CH3CHO,ethanal 
  g 6/00  CH3COOH          srd 01  OHCH2COOH        g 7/00  C2H5           
  g 7/00  C2H6             g 8/88  C2H5OH           g 7/00  CH3OCH3        
  srd 01  CH3O2CH3         g 8/00  C2O              tpis79  *C3            
  n 4/98  C3H3,1-propynl   n 4/98  C3H3,2-propynl   g 2/00  C3H4,allene    
  g 1/00  C3H4,propyne     g 5/90  C3H4,cyclo-      g 3/01  C3H5,allyl     
  g 2/00  C3H6,propylene   g 1/00  C3H6,cyclo-      g 6/01  C3H6O,propylox 
  g 6/97  C3H6O,acetone    g 1/02  C3H6O,propanal   g 7/01  C3H7,n-propyl  
  g 9/85  C3H7,i-propyl    g 2/00  C3H8             g 2/00  C3H8O,1propanol
  g 2/00  C3H8O,2propanol  g 7/88  C3O2             g tpis  *C4            
  g 7/01  C4H2,butadiyne   g 8/00  C4H4,1,3-cyclo-  n10/92  C4H6,butadiene 
  n10/93  C4H6,1butyne     n10/93  C4H6,2butyne     g 8/00  C4H6,cyclo-    
  n 4/88  C4H8,1-butene    n 4/88  C4H8,cis2-buten  n 4/88  C4H8,tr2-butene
  n 4/88  C4H8,isobutene   g 8/00  C4H8,cyclo-      g10/00  (CH3COOH)2     
  n10/84  C4H9,n-butyl     n10/84  C4H9,i-butyl     g 1/93  C4H9,s-butyl   
  g 1/93  C4H9,t-butyl     g12/00  C4H10,n-butane   g 8/00  C4H10,isobutane
  g 8/00  *C5              g 5/90  C5H6,1,3cyclo-   g 1/93  C5H8,cyclo-    
  n 4/87  C5H10,1-pentene  g 2/01  C5H10,cyclo-     n10/84  C5H11,pentyl   
  g 1/93  C5H11,t-pentyl   n10/85  C5H12,n-pentane  n10/85  C5H12,i-pentane
  n10/85  CH3C(CH3)2CH3    g 2/93  C6H2             g11/00  C6H5,phenyl    
  g 8/00  C6H5O,phenoxy    g 8/00  C6H6             g 8/00  C6H5OH,phenol  
  g 1/93  C6H10,cyclo-     n 4/87  C6H12,1-hexene   g 6/90  C6H12,cyclo-   
  n10/83  C6H13,n-hexyl    g 6/01  C6H14,n-hexane   g 7/01  C7H7,benzyl    
  g 1/93  C7H8             g12/00  C7H8O,cresol-mx  n 4/87  C7H14,1-heptene
  n10/83  C7H15,n-heptyl   n10/85  C7H16,n-heptane  n10/85  C7H16,2-methylh
  n 4/89  C8H8,styrene     n10/86  C8H10,ethylbenz  n 4/87  C8H16,1-octene 
  n10/83  C8H17,n-octyl    n 4/85  C8H18,n-octane   n 4/85  C8H18,isooctane
  n10/83  C9H19,n-nonyl    g 3/01  C10H8,naphthale  n10/83  C10H21,n-decyl 
  g 8/00  C12H9,o-bipheny  g 8/00  C12H10,biphenyl  g 6/97  *H             
  g 1/01  HCO              g 6/01  HCCO             g 4/02  HO2            
  tpis78  *H2              g 5/01  HCHO,formaldehy  g 6/01  HCOOH          
  g 8/89  H2O              g 6/99  H2O2             g 6/01  (HCOOH)2       
  g 5/97  *O               g 4/02  *OH              tpis89  *O2            
  g 8/01  O3               n 4/83  C(gr)            n 4/83  C(gr)          
  n 4/83  C(gr)            g11/99  H2O(cr)          g 8/01  H2O(L)         
  g 8/01  H2O(L)         

 O/F =   0.164300

                       EFFECTIVE FUEL     EFFECTIVE OXIDANT        MIXTURE
 ENTHALPY                  h(2)/R              h(1)/R               h0/R
 (KG-MOL)(K)/KG       -0.59787508e+02     -0.48137850e-07     -0.51350623e+02

 KG-FORM.WT./KG             bi(2)               bi(1)               b0i
  *O                   0.00000000e+00      0.62502344e-01      0.88199877e-02
  *C                   0.71293216e-01      0.00000000e+00      0.61232709e-01
  *H                   0.14258643e+00      0.00000000e+00      0.12246542e+00

 POINT ITN      T            O           C           H 
   1   17    1059.957     -40.036       3.278      -8.681
 ADD  C(gr)          
   1    9    1096.025     -35.956      -1.657      -7.635
 Pinf/Pt = 1.728265
   2    3    1038.276     -37.283      -1.576      -7.839
 Pinf/Pt = 1.727080
   2    2    1038.345     -37.281      -1.577      -7.839





           THEORETICAL ROCKET PERFORMANCE ASSUMING FROZEN COMPOSITION
                                 AFTER POINT 2

 Pin =   292.9 PSIA
 CASE =                

             REACTANT                    WT FRACTION      ENERGY      TEMP
                                          (SEE NOTE)     KJ/KG-MOL      K  
 OXIDANT     O2                           1.0000000         0.000    298.150
 FUEL        C3H6                         1.0000000    -20918.000    298.150

 O/F=    0.16430  %FUEL= 85.888549  R,EQ.RATIO=20.827481  PHI,EQ.RATIO=20.827481

                 CHAMBER   THROAT
 Pinf/P            1.0000   1.7271
 P, BAR            20.196   11.694
 T, K             1096.03  1038.35
 RHO, KG/CU M    4.2576 0 2.6233 0
 H, KJ/KG         -426.96  -678.25
 U, KJ/KG         -901.31 -1124.03
 G, KJ/KG        -12335.9 -11960.5
 S, KJ/(KG)(K)    10.8656  10.8656

 M, (1/n)          19.211   19.367
 MW, MOL WT        10.449   10.425
 Cp, KJ/(KG)(K)   10.2296  10.6846
 GAMMAs            1.1292   1.1275
 SON VEL,M/SEC      731.9    708.9
 MACH NUMBER        0.000    1.000

 PERFORMANCE PARAMETERS

 Ae/At                      1.0000
 CSTAR, M/SEC               1086.0
 CF                         0.6528
 Ivac, M/SEC                1337.7
 Isp, M/SEC                  708.9

 MOLE FRACTIONS

 CH4             0.13833   *CO             0.03227   *CO2            0.00602
 C2H6            0.00001   *H2             0.31402   H2O             0.04764
 C(gr)           0.46171

  * THERMODYNAMIC PROPERTIES FITTED TO 20000.K

    PRODUCTS WHICH WERE CONSIDERED BUT WHOSE MOLE FRACTIONS
    WERE LESS THAN 5.000000e-06 FOR ALL ASSIGNED CONDITIONS



 NOTE. WEIGHT FRACTION OF FUEL IN TOTAL FUELS AND OF OXIDANT IN TOTAL OXIDANTS

 WARNING!!  CALCULATIONS WERE STOPPED BECAUSE NEXT POINT IS MORE
 THAN 50 K BELOW THE TEMPERATURE RANGE OF A CONDENSED SPECIES (ROCKET)



